/*--------------------------------*- C++ -*----------------------------------*\
| =========                 |                                                 |
| \\      /  F ield         | OpenFOAM: The Open Source CFD Toolbox           |
|  \\    /   O peration     | Version:  4.x                                   |
|   \\  /    A nd           | Web:      www.OpenFOAM.org                      |
|    \\/     M anipulation  |                                                 |
\*---------------------------------------------------------------------------*/
FoamFile
{
    version     2.0;
    format      ascii;
    class       dictionary;
    object      createBafflesDict;
}
// * * * * * * * * * * * * * * * * * * * * * * * * * * * * * * * * * * * * * //

// Whether to convert internal faces only (so leave boundary faces intact).
// This is only relevant if your face selection type can pick up boundary
// faces.
internalFacesOnly true;


// Baffles to create.
baffles
{
    baffleFaces
    {
        //- Use predefined faceZone to select faces and orientation.
        type        faceZone;
        zoneName    baffleFaces;

        patchPairs
        {
            type            wall;

            patchFields
            {
                U.air
                {
                    type            fixedValue;
                    value           uniform (0 0 0);
                }
            }
        }
    }
}


// ************************************************************************* //
