/*--------------------------------*- C++ -*----------------------------------*\
  =========                 |
  \\      /  F ield         | OpenFOAM: The Open Source CFD Toolbox
   \\    /   O peration     | Website:  https://openfoam.org
    \\  /    A nd           | Version:  9
     \\/     M anipulation  |
\*---------------------------------------------------------------------------*/
FoamFile
{
    format      ascii;
    class       volScalarField;
    object      p_rgh;
}
// * * * * * * * * * * * * * * * * * * * * * * * * * * * * * * * * * * * * * //

dimensions      [1 -1 -2 0 0 0 0];

internalField   uniform 0;

boundaryField
{
    #includeEtc "caseDicts/setConstraintTypes"

    inlet
    {
        type            fixedFluxPressure;
    }

    outlet
    {
        type            fixedValue;
        value           uniform 0;
    }

    top
    {
        type            fixedFluxPressure;
    }
    ground
    {
        type            fixedFluxPressure;
    }
    tower1
    {
        type            fixedFluxPressure;
    }
    tower2
    {
        type            fixedFluxPressure;
    }

}


// ************************************************************************* //
