/*--------------------------------*- C++ -*----------------------------------*\
| =========                 |                                                 |
| \\      /  F ield         | OpenFOAM: The Open Source CFD Toolbox           |
|  \\    /   O peration     | Version:  dev                                   |
|   \\  /    A nd           | Web:      www.OpenFOAM.org                      |
|    \\/     M anipulation  |                                                 |
\*---------------------------------------------------------------------------*/
FoamFile
{
    version         2.0;
    format          ascii;
    class           dictionary;
    location        system;
    object          probesDict;
}

// * * * * * * * * * * * * * * * * * * * * * * * * * * * * * * * * * * * * //


points
(
    (0.1 0.225 0.0)//y=0.225
    (0.05 0.225 0.0)//y=0.225
);

fields  (U.waterx);

#includeEtc "caseDicts/postProcessing/probes/probes.cfg"




// * * * * * * * * * * * * * * * * * * * * * * * * * * * * * * * * * * * * //
