/*--------------------------------*- C++ -*----------------------------------*\
  =========                 |
  \\      /  F ield         | OpenFOAM: The Open Source CFD Toolbox
   \\    /   O peration     | Website:  https://openfoam.org
    \\  /    A nd           | Version:  7
     \\/     M anipulation  |
\*---------------------------------------------------------------------------*/
FoamFile
{
    version     2.0;
    format      ascii;
    class       dictionary;
    location    "system";
    object      fvSchemes;
}
// * * * * * * * * * * * * * * * * * * * * * * * * * * * * * * * * * * * * * //

ddtSchemes
{
    default         steadyState;
}

gradSchemes
{
    default         cellLimited Gauss linear 1;
}

divSchemes
{
    default         none;

    div(phi,U)      bounded Gauss limitedLinear 0.9;
    div(phi,e)      bounded Gauss limitedLinear 0.9;

    div(phi,K)      bounded Gauss limitedLinear 0.9;
    div(phi,h)      bounded Gauss limitedLinear 0.9;

    div(phi,k)      bounded Gauss limitedLinear 0.9;
    div(phi,epsilon) bounded Gauss limitedLinear 0.9;

    div(phi,Ekp)    bounded Gauss linear;
    div(phi,(p|rho)) bounded Gauss linear;
    div(((rho*nuEff)*dev2(T(grad(U))))) Gauss linear;
}

laplacianSchemes
{
    default         Gauss linear uncorrected;
}

interpolationSchemes
{
    default         linear;
}

snGradSchemes
{
    default         uncorrected;
}


// ************************************************************************* //
